/*--------------------------------*- C++ -*----------------------------------*\
| =========                 |                                                 |
| \\      /  F ield         | OpenFOAM: The Open Source CFD Toolbox           |
|  \\    /   O peration     | Version:  v2212                                 |
|   \\  /    A nd           | Website:  www.openfoam.com                      |
|    \\/     M anipulation  |                                                 |
\*---------------------------------------------------------------------------*/
FoamFile
{
    version     2.0;
    format      ascii;
    class       dictionary;
    object      controlDict;
}
// * * * * * * * * * * * * * * * * * * * * * * * * * * * * * * * * * * * * * //

application     buoyantPimpleMhdFoam;

startFrom       latestTime;

startTime       0;

stopAt          endTime;

endTime         3000;  // change to 10 flows 

deltaT          0.1;

adjustTimeStep  no;

maxCo           0.5;

maxDeltaT       0.5;

writeControl    timeStep;

writeInterval   20;

purgeWrite      20;

writeFormat     ascii;

writePrecision  6;

writeCompression off;

timeFormat      general;

timePrecision   6;

runTimeModifiable true;

functions
{
    #includeFunc components(U)
}

	
// ************************************************************************* //
